Version 4
SHEET 1 880 680
WIRE 176 112 0 112
WIRE 0 128 0 112
WIRE 176 128 176 112
WIRE 0 224 0 208
WIRE 176 224 176 208
FLAG 0 224 0
FLAG 176 224 0
SYMBOL res 160 112 R0
SYMATTR InstName R1
SYMATTR Value 1
SYMBOL Misc\\signal 0 112 R0
WINDOW 3 -29 151 Left 2
WINDOW 123 0 0 Left 0
WINDOW 39 0 0 Left 0
SYMATTR InstName V1
SYMATTR Value PWL file=mysignal.txt
TEXT -34 284 Left 2 !.tran 0 2m 0 0.1m
